/*--------------------------------*- C++ -*----------------------------------*\
| =========                 |                                                 |
| \\      /  F ield         | OpenFOAM: The Open Source CFD Toolbox           |
|  \\    /   O peration     | Website:  https://openfoam.org                  |
|   \\  /    A nd           | Version:  9                                     |
|    \\/     M anipulation  |                                                 |
\*---------------------------------------------------------------------------*/
FoamFile
{
    format      ascii;
    class       dictionary;
    object      controlDict;
}
// * * * * * * * * * * * * * * * * * * * * * * * * * * * * * * * * * * * * * //

application     rheoFoam;

startFrom       latestTime;

startTime       0;

stopAt          endTime;

endTime         15;

deltaT          2e-2;

writeControl    runTime;

writeInterval   1;

purgeWrite      0;

writeFormat     ascii;

writePrecision  10;

writeCompression compressed;

timeFormat      general;

timePrecision   10;

graphFormat     raw;

runTimeModifiable yes;

adjustTimeStep off;

maxCo          0.01;

maxDeltaT      0.001;

FOAM_SIGFPE = false;

functions
{
   outputTest
    {
	 functionObjectLibs ("libutilityFunctionObjects.so");
	 type coded;
	 name calTest;
	 writeControl timeStep;
         writeInterval      2;
         enabled             yes;
  codeWrite
  #{
          scalarList list;
          list.append(mesh().time().value());  // Time (col 0)  
           list.append(1017);             // Cd   (col 1)  

          // Write data

           string comsh;           
           string filename("test.txt");
	   std::stringstream doub2str; doub2str.precision(12);

           comsh = "./writeData " + filename;
           forAll(list, id)
            {
              doub2str.str(std::string());
              doub2str << list[id]; 
              comsh += " " + doub2str.str();
            }
           
           if (Pstream::master())
            {
	      system(comsh);
            }

	 #};
    }
 
}

// ************************************************************************* //
